[General]
network = UanTest
sim-time-limit = 1000s
simtime-resolution = ns 

**.radioMedium.pathLoss.typename = "LoRaLogNormalShadowing"
**.uanNode3.app[0].typename = "SimpleAppBuoy"
**.app[*].typename = "SimpleApp"
**.uanNode1.uanNic.mac.address = "00-00-00-00-00-01"
**.uanNode2.uanNic.mac.address = "00-00-00-00-00-02"
**.uanNode3.uanNic.mac.address = "00-00-00-00-00-03"

**.uanNode1.**.numberOfPacketsToSend = 0
**.uanNode2.**.timeToFirstPacket = 10s
**.uanNode1.**.timeToFirstPacket = 15s

**.ifaceBitrate = 300bps
